Version 4
SHEET 1 1824 680
WIRE -1024 -1632 -1152 -1632
WIRE -1552 -1600 -1584 -1600
WIRE -1504 -1600 -1552 -1600
WIRE -1408 -1600 -1440 -1600
WIRE -1376 -1600 -1408 -1600
WIRE -1552 -1552 -1552 -1600
WIRE -1408 -1552 -1408 -1600
WIRE -1152 -1552 -1152 -1632
WIRE -1120 -1552 -1152 -1552
WIRE -1024 -1536 -1024 -1632
WIRE -1024 -1536 -1056 -1536
WIRE -1184 -1520 -1184 -1536
WIRE -1120 -1520 -1184 -1520
WIRE -1024 -1520 -1024 -1536
WIRE -1184 -1504 -1184 -1520
WIRE -1088 -1472 -1088 -1504
WIRE -1552 -1456 -1552 -1488
WIRE -1472 -1456 -1472 -1536
WIRE -1408 -1456 -1408 -1488
WIRE -1184 -1408 -1184 -1424
WIRE -1024 -1344 -1296 -1344
WIRE -944 -1344 -960 -1344
WIRE -1136 -1296 -1136 -1312
WIRE -320 -1232 -400 -1232
WIRE -224 -1232 -240 -1232
WIRE -1136 -1200 -1136 -1216
WIRE -1040 -1200 -1136 -1200
WIRE -944 -1200 -944 -1344
WIRE -944 -1200 -960 -1200
WIRE -528 -1136 -576 -1136
WIRE -400 -1136 -400 -1232
WIRE -400 -1136 -448 -1136
WIRE -368 -1136 -400 -1136
WIRE -1136 -1120 -1136 -1200
WIRE -1104 -1120 -1136 -1120
WIRE -224 -1120 -224 -1232
WIRE -224 -1120 -304 -1120
WIRE -944 -1104 -944 -1200
WIRE -944 -1104 -1040 -1104
WIRE -896 -1104 -944 -1104
WIRE -528 -1104 -624 -1104
WIRE -432 -1104 -448 -1104
WIRE -368 -1104 -432 -1104
WIRE -1440 -1088 -1472 -1088
WIRE -1376 -1088 -1440 -1088
WIRE -1296 -1088 -1296 -1344
WIRE -1280 -1088 -1296 -1088
WIRE -1168 -1088 -1200 -1088
WIRE -1104 -1088 -1168 -1088
WIRE -432 -1088 -432 -1104
WIRE -1840 -1072 -1888 -1072
WIRE -1440 -1072 -1440 -1088
WIRE -1168 -1072 -1168 -1088
WIRE -2032 -1056 -2080 -1056
WIRE -1936 -1056 -1984 -1056
WIRE -1888 -1056 -1888 -1072
WIRE -1168 -992 -1168 -1008
WIRE -1072 -992 -1072 -1072
WIRE -432 -992 -432 -1008
WIRE -336 -992 -336 -1088
WIRE -2032 -976 -2032 -1056
WIRE -1984 -976 -2032 -976
WIRE -1936 -976 -1936 -1056
WIRE -1888 -976 -1936 -976
WIRE -1440 -976 -1440 -992
WIRE -2080 -960 -2080 -976
WIRE -512 -848 -736 -848
WIRE -400 -832 -640 -832
WIRE -640 -800 -640 -832
WIRE -2032 -768 -2096 -768
WIRE -736 -752 -736 -848
WIRE -720 -752 -736 -752
WIRE -464 -752 -560 -752
WIRE -384 -752 -464 -752
WIRE -80 -752 -112 -752
WIRE -16 -752 -80 -752
WIRE 96 -752 64 -752
WIRE 144 -752 96 -752
WIRE 256 -752 224 -752
WIRE 304 -752 256 -752
WIRE 416 -752 384 -752
WIRE 464 -752 416 -752
WIRE -80 -736 -80 -752
WIRE 96 -736 96 -752
WIRE 256 -736 256 -752
WIRE 416 -736 416 -752
WIRE -2032 -720 -2032 -768
WIRE -1920 -720 -1952 -720
WIRE -1392 -704 -1392 -720
WIRE -1344 -704 -1392 -704
WIRE -720 -704 -736 -704
WIRE -512 -704 -512 -848
WIRE -512 -704 -544 -704
WIRE -496 -704 -512 -704
WIRE -400 -704 -400 -832
WIRE -400 -704 -416 -704
WIRE -384 -704 -400 -704
WIRE -1184 -688 -1280 -688
WIRE -1152 -688 -1184 -688
WIRE -384 -688 -384 -704
WIRE -1504 -672 -1520 -672
WIRE -1392 -672 -1424 -672
WIRE -1344 -672 -1392 -672
WIRE -80 -656 -80 -672
WIRE 96 -656 96 -672
WIRE 256 -656 256 -672
WIRE 416 -656 416 -672
WIRE -1312 -640 -1312 -656
WIRE -1920 -624 -1968 -624
WIRE -384 -608 -384 -624
WIRE -1920 -576 -1968 -576
WIRE -1392 -560 -1392 -672
WIRE -1344 -560 -1392 -560
WIRE -1184 -560 -1184 -688
WIRE -1184 -560 -1264 -560
FLAG -2080 -960 0
FLAG -1840 -1072 Stimulus
FLAG -1920 -720 9V
IOPIN -1920 -720 Out
FLAG -2096 -688 0
FLAG -1920 -624 VoutBeatPulses
IOPIN -1920 -624 Out
FLAG -1920 -576 VoutRateAnalogue
IOPIN -1920 -576 Out
FLAG -1472 -1456 0
FLAG -1584 -1600 9V
IOPIN -1584 -1600 In
FLAG -1552 -1456 0
FLAG -1408 -1456 0
FLAG -1376 -1600 5V
IOPIN -1376 -1600 In
FLAG -1184 -1408 0
FLAG -1184 -1616 5V
IOPIN -1184 -1616 In
FLAG -1088 -1472 0
FLAG -1088 -1568 5V
IOPIN -1088 -1568 In
FLAG -1024 -1520 VGround
IOPIN -1024 -1520 In
FLAG -1072 -992 0
FLAG -1168 -992 0
FLAG -1136 -1312 0
FLAG -1072 -1136 5V
IOPIN -1072 -1136 In
FLAG -336 -992 0
FLAG -432 -992 0
FLAG -336 -1152 5V
IOPIN -336 -1152 In
FLAG -1312 -720 5V
IOPIN -1312 -720 In
FLAG -1312 -640 0
FLAG -1536 -1088 Stimulus
FLAG -1440 -976 VGround
IOPIN -1440 -976 In
FLAG -1152 -688 VoutBeatPulses
IOPIN -1152 -688 Out
FLAG -464 -752 Q
FLAG -512 -704 /Q
FLAG -384 -608 0
FLAG -736 -704 VoutBeatPulses
IOPIN -736 -704 Out
FLAG -896 -1104 Filtered
IOPIN -896 -1104 In
FLAG -624 -1104 Filtered
IOPIN -624 -1104 In
FLAG -224 -1120 Amplified
IOPIN -224 -1120 In
FLAG -1520 -672 Amplified
IOPIN -1520 -672 In
FLAG -576 -1136 VGround
IOPIN -576 -1136 In
FLAG -1392 -720 VGround
IOPIN -1392 -720 In
FLAG -384 -752 PWM
IOPIN -384 -752 Out
FLAG -272 -752 PWM
IOPIN -272 -752 Out
FLAG 464 -752 Analog_Small
IOPIN 464 -752 Out
FLAG -80 -656 0
FLAG 96 -656 0
FLAG 256 -656 0
FLAG 416 -656 0
SYMBOL voltage -1984 -1072 R0
WINDOW 123 0 0 Left 0
WINDOW 39 0 0 Left 0
WINDOW 3 -89 197 Left 2
WINDOW 0 -13 54 Left 2
SYMATTR Value PWL file=60.csv
SYMATTR InstName V2
SYMBOL voltage -1888 -1072 R0
WINDOW 123 24 44 Left 2
WINDOW 39 0 0 Left 0
WINDOW 3 -386 233 Left 2
WINDOW 0 -11 56 Left 2
SYMATTR Value SINE({sineOffset} {sineAmplitude} {sineFreq})
SYMATTR InstName V3
SYMBOL voltage -2080 -1072 R0
WINDOW 123 0 0 Left 0
WINDOW 39 0 0 Left 0
WINDOW 3 3 160 Left 2
WINDOW 0 -13 55 Left 2
SYMATTR Value {dcAmplitude}
SYMATTR InstName V1
SYMBOL voltage -2096 -784 R0
WINDOW 123 24 44 Left 2
WINDOW 39 0 0 Left 0
WINDOW 3 -46 76 Left 2
WINDOW 0 -13 57 Left 2
SYMATTR Value 9
SYMATTR InstName V4
SYMBOL res -1936 -736 R90
WINDOW 0 -9 30 VBottom 2
WINDOW 3 34 56 VTop 2
SYMATTR InstName R_Sense
SYMATTR Value 0.010
SYMBOL LM7805 -1472 -1584 R0
SYMATTR InstName U1
SYMBOL cap -1424 -1552 R0
SYMATTR InstName C5
SYMATTR Value 10µ
SYMBOL cap -1568 -1552 R0
SYMATTR InstName C6
SYMATTR Value 10µ
SYMBOL res -1168 -1520 M0
SYMATTR InstName R3
SYMATTR Value 500k
SYMBOL res -1168 -1632 M0
SYMATTR InstName R4
SYMATTR Value 500k
SYMBOL Opamps\\opamp2 -1088 -1600 R0
WINDOW 0 -55 11 Left 2
WINDOW 3 -74 112 Left 2
SYMATTR InstName U2
SYMATTR Value TL081
SYMBOL res -1280 -1104 R90
WINDOW 0 0 56 VBottom 2
WINDOW 3 32 56 VTop 2
SYMATTR InstName R5
SYMATTR Value 350k
SYMBOL cap -1184 -1072 R0
SYMATTR InstName C1
SYMATTR Value 110n
SYMBOL Opamps\\opamp2 -1072 -1168 R0
SYMATTR InstName U4
SYMATTR Value TL081
SYMBOL res -1184 -1104 R90
WINDOW 0 0 56 VBottom 2
WINDOW 3 32 56 VTop 2
SYMATTR InstName R6
SYMATTR Value 350k
SYMBOL res -944 -1216 R90
WINDOW 0 0 56 VBottom 2
WINDOW 3 32 56 VTop 2
SYMATTR InstName Ra1
SYMATTR Value 10k
SYMBOL res -1120 -1312 M0
SYMATTR InstName Rb1
SYMATTR Value 500k
SYMBOL cap -960 -1360 R90
WINDOW 0 0 32 VBottom 2
WINDOW 3 32 32 VTop 2
SYMATTR InstName C2
SYMATTR Value 110n
SYMBOL res -224 -1248 R90
WINDOW 0 0 56 VBottom 2
WINDOW 3 32 56 VTop 2
SYMATTR InstName R7
SYMATTR Value 500k
SYMBOL res -432 -1152 R90
WINDOW 0 2 80 VBottom 2
WINDOW 3 -26 27 VTop 2
SYMATTR InstName R8
SYMATTR Value 10k
SYMBOL Opamps\\opamp2 -336 -1184 R0
WINDOW 3 6 102 Left 2
SYMATTR Value TLC2272
SYMATTR InstName U5
SYMBOL res -448 -1104 R0
SYMATTR InstName R9
SYMATTR Value 500k
SYMBOL res -432 -1120 R90
WINDOW 0 61 97 VBottom 2
WINDOW 3 29 38 VTop 2
SYMATTR InstName R10
SYMATTR Value 10k
SYMBOL Comparators\\LT1018 -1312 -688 R0
SYMATTR InstName U7
SYMBOL cap -1472 -1072 M270
WINDOW 0 32 32 VTop 2
WINDOW 3 0 32 VBottom 2
SYMATTR InstName C8
SYMATTR Value 750n
SYMBOL res -1456 -1088 R0
SYMATTR InstName R18
SYMATTR Value 300k
SYMBOL res -1248 -576 R90
WINDOW 0 0 56 VBottom 2
WINDOW 3 32 56 VTop 2
SYMATTR InstName R21
SYMATTR Value 100k
SYMBOL res -1408 -688 R90
WINDOW 0 0 56 VBottom 2
WINDOW 3 32 56 VTop 2
SYMATTR InstName R22
SYMATTR Value 10k
SYMBOL Digital\\dflop -640 -800 R0
SYMATTR InstName A1
SYMATTR SpiceLine Vhigh 5 Trise 10n
SYMBOL res -400 -720 R90
WINDOW 0 0 56 VBottom 2
WINDOW 3 32 56 VTop 2
SYMATTR InstName R1
SYMATTR Value 500k
SYMBOL cap -400 -688 R0
SYMATTR InstName C3
SYMATTR Value 1µ
SYMBOL res -96 -768 R90
WINDOW 0 0 56 VBottom 2
WINDOW 3 32 56 VTop 2
SYMATTR InstName R11
SYMATTR Value 500k
SYMBOL cap -96 -736 R0
SYMATTR InstName C7
SYMATTR Value 750n
SYMBOL res 80 -768 R90
WINDOW 0 0 56 VBottom 2
WINDOW 3 32 56 VTop 2
SYMATTR InstName R12
SYMATTR Value 500k
SYMBOL cap 80 -736 R0
SYMATTR InstName C9
SYMATTR Value 750n
SYMBOL res 240 -768 R90
WINDOW 0 0 56 VBottom 2
WINDOW 3 32 56 VTop 2
SYMATTR InstName R13
SYMATTR Value 500k
SYMBOL cap 240 -736 R0
SYMATTR InstName C10
SYMATTR Value 750n
SYMBOL res 400 -768 R90
WINDOW 0 0 56 VBottom 2
WINDOW 3 32 56 VTop 2
SYMATTR InstName R14
SYMATTR Value 500k
SYMBOL cap 400 -736 R0
SYMATTR InstName C11
SYMATTR Value 750n
TEXT -2080 -1120 Left 2 !.tran 0 {transtop} 0 {timestep}
TEXT -1952 -1168 Left 2 !.include E344cfg.txt
TEXT -2288 -1384 Left 2 ;Don't change these -- used for auto-assessments.\nYou may modify input files while developing.\nFor submission: \n  * Use only 9V supply \n  * Connect "Stimulus" to your input\n  * Connect "VoutXXXX" to your output signals.\n  * Only one label name per net.
TEXT -2280 -1168 Left 2 ;Config file:
TEXT -2280 -1120 Left 2 ;Analysis setup:
TEXT -2272 -744 Left 2 ;Battery
TEXT -2280 -1032 Left 2 ;Sensor-\nemulating \nstimulus
TEXT -2272 -608 Left 2 ;Assessed nets:\nConnect to your outputs
TEXT -2304 -1656 Left 2 ;D.H. von Eschwege,  21785155\nDC = 2 V\nHeart rate pk = 38.85 mV
TEXT -1848 -1656 Left 2 !.incl TLC2272.lib
TEXT -1888 -1632 Left 2 !.incl LM78XX_RS.lib
TEXT -1816 -1608 Left 2 !.incl TL081.lib
TEXT -1896 -1584 Left 2 !.options numdgt = 7
TEXT -1936 -1560 Left 2 !.options plotwinsize = 0
TEXT -2312 -464 Left 2 !;ac dec 1000 0.001 1000
TEXT -2304 -488 Left 2 !;tran 0 10 0 {timestep}
LINE Normal -1792 -1008 -1856 -1008 2
LINE Normal -1792 -864 -1792 -1008 2
LINE Normal -1808 -880 -1792 -864 2
LINE Normal -1792 -864 -1808 -880 2
LINE Normal -1776 -880 -1792 -864 2
LINE Normal -2128 -1008 -2112 -1008 2
LINE Normal -2128 -928 -2128 -1008 2
LINE Normal -2128 -912 -2128 -928 2
LINE Normal -2096 -912 -2128 -912 2
LINE Normal -2112 -928 -2096 -912 2
LINE Normal -2096 -912 -2112 -928 2
LINE Normal -2112 -896 -2096 -912 2
LINE Normal -1968 -944 -1968 -992 2
LINE Normal -1856 -944 -1968 -944 2
LINE Normal -1856 -896 -1856 -944 2
LINE Normal -1872 -912 -1856 -896 2
LINE Normal -1856 -896 -1872 -912 2
LINE Normal -1840 -912 -1856 -896 2
LINE Normal -2304 -544 -2304 -1408 1
LINE Normal -1680 -1408 -1680 -544 1
LINE Normal -1680 -544 -2304 -544 1
LINE Normal -1680 -1408 -2304 -1408 1
