Version 4
SHEET 1 1960 680
WIRE 560 -16 240 -16
WIRE 1392 0 1344 0
WIRE 1440 0 1392 0
WIRE 1568 0 1520 0
WIRE 1616 0 1568 0
WIRE 1744 0 1696 0
WIRE 1792 0 1744 0
WIRE 1920 0 1872 0
WIRE 1392 32 1392 0
WIRE 1568 32 1568 0
WIRE 1744 32 1744 0
WIRE 1920 32 1920 0
WIRE 240 80 240 -16
WIRE 320 80 240 80
WIRE 512 80 480 80
WIRE 576 80 512 80
WIRE 688 80 688 48
WIRE 688 80 656 80
WIRE 736 80 688 80
WIRE 912 80 816 80
WIRE 912 96 912 80
WIRE 1392 112 1392 96
WIRE 1568 112 1568 96
WIRE 1744 112 1744 96
WIRE 1920 112 1920 96
WIRE 304 128 160 128
WIRE 320 128 304 128
WIRE 528 128 496 128
WIRE 560 128 560 -16
WIRE 560 128 528 128
WIRE 400 192 400 176
WIRE 688 192 688 80
WIRE 688 192 400 192
FLAG 1392 112 0
FLAG 1568 112 0
FLAG 1744 112 0
FLAG 1920 112 0
FLAG 80 128 0
FLAG 512 80 Q
FLAG 528 128 Q\
FLAG 304 128 in
FLAG 912 176 0
FLAG 688 -16 0
SYMBOL res 1360 -16 R90
WINDOW 0 0 56 VBottom 2
WINDOW 3 32 56 VTop 2
SYMATTR InstName R1
SYMATTR Value 50k
SYMBOL cap 1376 32 R0
SYMATTR InstName C1
SYMATTR Value 16µ
SYMBOL res 1536 -16 R90
WINDOW 0 0 56 VBottom 2
WINDOW 3 32 56 VTop 2
SYMATTR InstName R2
SYMATTR Value 200k
SYMBOL cap 1552 32 R0
SYMATTR InstName C2
SYMATTR Value 4µ
SYMBOL res 1712 -16 R90
WINDOW 0 0 56 VBottom 2
WINDOW 3 32 56 VTop 2
SYMATTR InstName R3
SYMATTR Value 100k
SYMBOL cap 1728 32 R0
SYMATTR InstName C3
SYMATTR Value 5µ
SYMBOL res 1888 -16 R90
WINDOW 0 0 56 VBottom 2
WINDOW 3 32 56 VTop 2
SYMATTR InstName R4
SYMATTR Value 100k
SYMBOL cap 1904 32 R0
SYMATTR InstName C4
SYMATTR Value 5µ
SYMBOL Digital\\dflop 400 32 R0
SYMATTR InstName A1
SYMATTR SpiceLine Vhigh 5 Trise 10n
SYMBOL voltage 176 128 R90
WINDOW 123 0 0 Left 0
WINDOW 39 0 0 Left 0
WINDOW 3 -324 79 Left 2
SYMATTR InstName V3
SYMATTR Value PULSE(0 5 0.25 1n 1n 0.2 0.4)
SYMBOL res 672 64 R90
WINDOW 0 0 56 VBottom 2
WINDOW 3 32 56 VTop 2
SYMATTR InstName R5
SYMATTR Value 100k
SYMBOL cap 672 48 M180
WINDOW 0 24 56 Left 2
WINDOW 3 24 8 Left 2
SYMATTR InstName C5
SYMATTR Value 50µ
SYMBOL voltage 912 80 M0
WINDOW 0 24 96 Left 2
WINDOW 3 24 16 Left 2
WINDOW 123 0 0 Left 0
WINDOW 39 0 0 Left 0
SYMATTR InstName V1
SYMATTR Value 2.4
SYMBOL res 832 64 R90
WINDOW 0 0 56 VBottom 2
WINDOW 3 32 56 VTop 2
SYMATTR InstName R6
SYMATTR Value 100k
TEXT 168 0 VRight 2 !.tran 20
