Version 4
SHEET 1 2292 680
WIRE -1152 -1248 -1264 -1248
WIRE -640 -1232 -880 -1232
WIRE -560 -1232 -576 -1232
WIRE -1600 -1216 -1616 -1216
WIRE -1552 -1216 -1600 -1216
WIRE -1440 -1216 -1488 -1216
WIRE -1424 -1216 -1440 -1216
WIRE -304 -1216 -320 -1216
WIRE -192 -1216 -224 -1216
WIRE -1600 -1200 -1600 -1216
WIRE -1440 -1200 -1440 -1216
WIRE -1264 -1168 -1264 -1248
WIRE -1232 -1168 -1264 -1168
WIRE -1152 -1152 -1152 -1248
WIRE -1152 -1152 -1168 -1152
WIRE -1232 -1136 -1296 -1136
WIRE -1152 -1136 -1152 -1152
WIRE -1600 -1120 -1600 -1136
WIRE -1520 -1120 -1520 -1152
WIRE -1440 -1120 -1440 -1136
WIRE -1296 -1120 -1296 -1136
WIRE -656 -1120 -752 -1120
WIRE -560 -1120 -560 -1232
WIRE -560 -1120 -576 -1120
WIRE 48 -1104 48 -1120
WIRE 64 -1104 48 -1104
WIRE -1200 -1088 -1200 -1120
WIRE -464 -1088 -464 -1104
WIRE -448 -1088 -464 -1088
WIRE -320 -1088 -320 -1216
WIRE -320 -1088 -368 -1088
WIRE -288 -1088 -320 -1088
WIRE 208 -1088 208 -1104
WIRE 208 -1088 128 -1088
WIRE -1840 -1072 -1888 -1072
WIRE -192 -1072 -192 -1216
WIRE -192 -1072 -224 -1072
WIRE -160 -1072 -160 -1088
WIRE -160 -1072 -192 -1072
WIRE -64 -1072 -64 -1088
WIRE -48 -1072 -64 -1072
WIRE 48 -1072 32 -1072
WIRE 64 -1072 48 -1072
WIRE -2032 -1056 -2080 -1056
WIRE -1936 -1056 -1984 -1056
WIRE -1888 -1056 -1888 -1072
WIRE -448 -1056 -464 -1056
WIRE -352 -1056 -368 -1056
WIRE -288 -1056 -352 -1056
WIRE -752 -1040 -752 -1120
WIRE -720 -1040 -752 -1040
WIRE -464 -1040 -464 -1056
WIRE -352 -1040 -352 -1056
WIRE -560 -1024 -560 -1120
WIRE -560 -1024 -656 -1024
WIRE -528 -1024 -528 -1040
WIRE -528 -1024 -560 -1024
WIRE -256 -1024 -256 -1040
WIRE -1104 -1008 -1104 -1024
WIRE -1088 -1008 -1104 -1008
WIRE -1024 -1008 -1040 -1008
WIRE -960 -1008 -1024 -1008
WIRE -880 -1008 -880 -1232
WIRE -864 -1008 -880 -1008
WIRE -768 -1008 -784 -1008
WIRE -720 -1008 -768 -1008
WIRE -1024 -992 -1024 -1008
WIRE -768 -992 -768 -1008
WIRE 48 -992 48 -1072
WIRE 64 -992 48 -992
WIRE 208 -992 208 -1088
WIRE 208 -992 144 -992
WIRE -2032 -976 -2032 -1056
WIRE -1984 -976 -2032 -976
WIRE -1936 -976 -1936 -1056
WIRE -1888 -976 -1936 -976
WIRE -688 -976 -688 -992
WIRE -2080 -960 -2080 -976
WIRE -768 -912 -768 -928
WIRE -1024 -896 -1024 -912
WIRE -1008 -896 -1024 -896
WIRE 272 -880 256 -880
WIRE -1408 -864 -1616 -864
WIRE -1312 -848 -1520 -848
WIRE -1520 -816 -1520 -848
WIRE 0 -800 -96 -800
WIRE -2032 -768 -2096 -768
WIRE -1616 -768 -1616 -864
WIRE -1600 -768 -1616 -768
WIRE -1424 -768 -1440 -768
WIRE -1296 -768 -1296 -784
WIRE -1296 -768 -1424 -768
WIRE -1248 -768 -1248 -784
WIRE -1232 -768 -1248 -768
WIRE -1136 -768 -1152 -768
WIRE -1088 -768 -1136 -768
WIRE -992 -768 -1008 -768
WIRE -944 -768 -992 -768
WIRE -848 -768 -864 -768
WIRE -784 -768 -848 -768
WIRE -688 -768 -704 -768
WIRE -656 -768 -688 -768
WIRE -96 -768 -96 -800
WIRE -80 -768 -96 -768
WIRE -1136 -752 -1136 -768
WIRE -992 -752 -992 -768
WIRE -848 -752 -848 -768
WIRE -688 -752 -688 -768
WIRE 0 -752 0 -800
WIRE 0 -752 -16 -752
WIRE 32 -752 0 -752
WIRE 176 -752 176 -880
WIRE 176 -752 112 -752
WIRE 192 -752 176 -752
WIRE -192 -736 -192 -752
WIRE -80 -736 -192 -736
WIRE 272 -736 272 -880
WIRE 272 -736 256 -736
WIRE 304 -736 304 -752
WIRE 304 -736 272 -736
WIRE -2032 -720 -2032 -768
WIRE -1920 -720 -1952 -720
WIRE -1632 -720 -1632 -736
WIRE -1600 -720 -1632 -720
WIRE -1408 -720 -1408 -864
WIRE -1408 -720 -1424 -720
WIRE -1392 -720 -1408 -720
WIRE -1312 -720 -1312 -848
WIRE -1296 -720 -1312 -720
WIRE -192 -720 -192 -736
WIRE 32 -720 -16 -720
WIRE 128 -720 112 -720
WIRE 192 -720 128 -720
WIRE -16 -688 -16 -720
WIRE -16 -688 -32 -688
WIRE -1920 -624 -1968 -624
WIRE -1920 -576 -1968 -576
FLAG -2080 -960 0
FLAG -1840 -1072 Stimulus
FLAG -1920 -720 9V
IOPIN -1920 -720 Out
FLAG -2096 -688 0
FLAG -1920 -624 VoutBeatPulses
IOPIN -1920 -624 Out
FLAG -1920 -576 VoutRateAnalogue
IOPIN -1920 -576 Out
FLAG -1520 -1120 0
FLAG -1616 -1216 9V
IOPIN -1616 -1216 In
FLAG -1600 -1120 0
FLAG -1440 -1120 0
FLAG -1424 -1216 5V
IOPIN -1424 -1216 In
FLAG -1296 -1040 0
FLAG -1296 -1216 5V
IOPIN -1296 -1216 In
FLAG -1200 -1088 0
FLAG -1200 -1184 5V
IOPIN -1200 -1184 In
FLAG -1152 -1136 VGround
IOPIN -1152 -1136 In
FLAG -688 -976 0
FLAG -768 -912 0
FLAG -752 -1200 0
FLAG -688 -1056 5V
IOPIN -688 -1056 In
FLAG -256 -1024 0
FLAG -352 -960 0
FLAG -256 -1104 5V
IOPIN -256 -1104 In
FLAG 96 -1120 5V
IOPIN 96 -1120 In
FLAG 96 -1056 0
FLAG -1104 -1024 Stimulus
FLAG -1008 -896 VGround
IOPIN -1008 -896 In
FLAG 208 -1104 VoutBeatPulses
IOPIN 208 -1104 Out
FLAG -1424 -768 Q
FLAG -1408 -720 /Q
FLAG -1296 -656 0
FLAG -1632 -736 VoutBeatPulses
IOPIN -1632 -736 Out
FLAG -528 -1040 Filtered
IOPIN -528 -1040 In
FLAG -464 -1040 Filtered
IOPIN -464 -1040 In
FLAG -160 -1088 Amplified
IOPIN -160 -1088 In
FLAG -64 -1088 Amplified
IOPIN -64 -1088 In
FLAG -464 -1104 VGround
IOPIN -464 -1104 In
FLAG 48 -1120 VGround
IOPIN 48 -1120 In
FLAG -1296 -784 PWM
IOPIN -1296 -784 Out
FLAG -1136 -688 0
FLAG -992 -688 0
FLAG -848 -688 0
FLAG -656 -768 Analogue
IOPIN -656 -768 In
FLAG -1248 -784 PWM
IOPIN -1248 -784 Out
FLAG 128 -640 0
FLAG -32 -688 Analogue
IOPIN -32 -688 In
FLAG -192 -640 0
FLAG 224 -768 5V
IOPIN 224 -768 In
FLAG 224 -704 0
FLAG -192 -832 VGround
IOPIN -192 -832 In
FLAG 304 -752 Analogue_Amplified
IOPIN 304 -752 In
FLAG -688 -688 0
SYMBOL voltage -1984 -1072 R0
WINDOW 123 0 0 Left 0
WINDOW 39 0 0 Left 0
WINDOW 3 -89 197 Left 2
WINDOW 0 -13 54 Left 2
SYMATTR Value PWL file=60.csv
SYMATTR InstName V2
SYMBOL voltage -1888 -1072 R0
WINDOW 123 24 44 Left 2
WINDOW 39 0 0 Left 0
WINDOW 3 -386 233 Left 2
WINDOW 0 -11 56 Left 2
SYMATTR Value SINE({sineOffset} {sineAmplitude} {sineFreq})
SYMATTR InstName V3
SYMBOL voltage -2080 -1072 R0
WINDOW 123 0 0 Left 0
WINDOW 39 0 0 Left 0
WINDOW 3 3 160 Left 2
WINDOW 0 -13 55 Left 2
SYMATTR Value {dcAmplitude}
SYMATTR InstName V1
SYMBOL voltage -2096 -784 R0
WINDOW 123 24 44 Left 2
WINDOW 39 0 0 Left 0
WINDOW 3 -46 76 Left 2
WINDOW 0 -13 57 Left 2
SYMATTR Value 9
SYMATTR InstName V4
SYMBOL res -1936 -736 R90
WINDOW 0 -9 30 VBottom 2
WINDOW 3 34 56 VTop 2
SYMATTR InstName R_Sense
SYMATTR Value 0.010
SYMBOL LM7805 -1520 -1200 R0
WINDOW 0 39 -35 Bottom 2
WINDOW 3 -43 -62 Top 2
SYMATTR InstName U1
SYMBOL cap -1456 -1200 R0
WINDOW 0 -16 6 Left 2
WINDOW 3 -31 61 Left 2
SYMATTR InstName C5
SYMATTR Value 10µ
SYMBOL cap -1584 -1200 M0
WINDOW 0 -18 8 Left 2
WINDOW 3 -32 66 Left 2
SYMATTR InstName C6
SYMATTR Value 10µ
SYMBOL res -1280 -1136 M0
SYMATTR InstName R3
SYMATTR Value 500k
SYMBOL res -1280 -1232 M0
SYMATTR InstName R4
SYMATTR Value 500k
SYMBOL Opamps\\opamp2 -1200 -1216 R0
WINDOW 0 -55 11 Left 2
WINDOW 3 -74 112 Left 2
SYMATTR InstName U2
SYMATTR Value TL081
SYMBOL res -864 -1024 R90
WINDOW 0 0 56 VBottom 2
WINDOW 3 32 56 VTop 2
SYMATTR InstName R5
SYMATTR Value 500k
SYMBOL cap -784 -992 R0
SYMATTR InstName C1
SYMATTR Value 77n
SYMBOL Opamps\\opamp2 -688 -1088 R0
SYMATTR InstName U4
SYMATTR Value TL081
SYMBOL res -768 -1024 R90
WINDOW 0 0 56 VBottom 2
WINDOW 3 32 56 VTop 2
SYMATTR InstName R6
SYMATTR Value 500k
SYMBOL res -560 -1136 R90
WINDOW 0 0 56 VBottom 2
WINDOW 3 32 56 VTop 2
SYMATTR InstName Ra1
SYMATTR Value 10k
SYMBOL res -736 -1216 M0
SYMATTR InstName Rb1
SYMATTR Value 500k
SYMBOL cap -576 -1248 R90
WINDOW 0 0 32 VBottom 2
WINDOW 3 32 32 VTop 2
SYMATTR InstName C2
SYMATTR Value 77n
SYMBOL res -208 -1232 R90
WINDOW 0 0 56 VBottom 2
WINDOW 3 32 56 VTop 2
SYMATTR InstName R7
SYMATTR Value 500k
SYMBOL res -352 -1104 R90
WINDOW 0 -6 46 VBottom 2
WINDOW 3 -56 44 VTop 2
SYMATTR InstName R8
SYMATTR Value 10k
SYMBOL Opamps\\opamp2 -256 -1136 R0
WINDOW 3 12 96 Left 2
SYMATTR Value TL081
SYMATTR InstName U5
SYMBOL res -368 -1056 R0
SYMATTR InstName R9
SYMATTR Value 500k
SYMBOL res -352 -1072 R90
WINDOW 0 62 53 VBottom 2
WINDOW 3 63 49 VTop 2
SYMATTR InstName R10
SYMATTR Value 10k
SYMBOL Comparators\\LT1018 96 -1088 R0
WINDOW 3 17 17 Left 2
SYMATTR InstName U7
SYMBOL cap -1040 -992 M270
WINDOW 0 32 32 VTop 2
WINDOW 3 0 32 VBottom 2
SYMATTR InstName C8
SYMATTR Value 525n
SYMBOL res -1040 -1008 R0
SYMATTR InstName R18
SYMATTR Value 500k
SYMBOL res 160 -1008 R90
WINDOW 0 0 56 VBottom 2
WINDOW 3 32 56 VTop 2
SYMATTR InstName R21
SYMATTR Value 100k
SYMBOL res 48 -1088 R90
WINDOW 0 0 56 VBottom 2
WINDOW 3 32 56 VTop 2
SYMATTR InstName R22
SYMATTR Value 10k
SYMBOL Digital\\dflop -1520 -816 R0
SYMATTR InstName A1
SYMATTR SpiceLine Vhigh 5 Trise 10n
SYMBOL res -1296 -736 R90
WINDOW 0 0 56 VBottom 2
WINDOW 3 32 56 VTop 2
SYMATTR InstName R1
SYMATTR Value 500k
SYMBOL cap -1312 -720 R0
WINDOW 3 27 51 Left 2
SYMATTR Value 1µ
SYMATTR InstName C3
SYMBOL res -1136 -784 R90
WINDOW 0 0 56 VBottom 2
WINDOW 3 32 56 VTop 2
SYMATTR InstName R19
SYMATTR Value 500k
SYMBOL cap -1152 -752 R0
WINDOW 3 26 49 Left 2
SYMATTR Value 1µ
SYMATTR InstName C4
SYMBOL res -992 -784 R90
WINDOW 0 0 56 VBottom 2
WINDOW 3 32 56 VTop 2
SYMATTR InstName R20
SYMATTR Value 500k
SYMBOL cap -1008 -752 R0
WINDOW 3 25 50 Left 2
SYMATTR Value 1µ
SYMATTR InstName C12
SYMBOL res -848 -784 R90
WINDOW 0 0 56 VBottom 2
WINDOW 3 32 56 VTop 2
SYMATTR InstName R23
SYMATTR Value 500k
SYMBOL cap -864 -752 R0
WINDOW 3 24 51 Left 2
SYMATTR Value 1µ
SYMATTR InstName C13
SYMBOL res 272 -896 R90
WINDOW 0 0 56 VBottom 2
WINDOW 3 32 56 VTop 2
SYMATTR InstName R2
SYMATTR Value 900k
SYMBOL res 128 -768 R90
WINDOW 0 2 96 VBottom 2
WINDOW 3 -26 27 VTop 2
SYMATTR InstName R11
SYMATTR Value 41k
SYMBOL res 112 -736 R0
SYMATTR InstName R12
SYMATTR Value 900k
SYMBOL res 128 -736 R90
WINDOW 0 55 99 VBottom 2
WINDOW 3 29 38 VTop 2
SYMATTR InstName R13
SYMATTR Value 41k
SYMBOL res -176 -848 M0
WINDOW 0 -56 42 Left 2
WINDOW 3 -65 71 Left 2
SYMATTR InstName R14
SYMATTR Value 500k
SYMATTR SpiceLine tol=60k
SYMBOL res -176 -736 M0
WINDOW 0 40 35 Left 2
WINDOW 3 44 67 Left 2
SYMATTR InstName R15
SYMATTR Value 300k
SYMBOL OpAmps\\opamp -48 -816 R0
SYMATTR InstName U3
SYMBOL OpAmps\\UniversalOpamp2 224 -736 R0
SYMATTR InstName U6
SYMBOL res -688 -784 R90
WINDOW 0 0 56 VBottom 2
WINDOW 3 32 56 VTop 2
SYMATTR InstName R16
SYMATTR Value 500k
SYMBOL cap -704 -752 R0
WINDOW 3 24 51 Left 2
SYMATTR Value 1µ
SYMATTR InstName C7
TEXT -2080 -1120 Left 2 !.tran 0 {transtop} 0 {timestep}
TEXT -1952 -1168 Left 2 !.include E344cfg.txt
TEXT -2288 -1384 Left 2 ;Don't change these -- used for auto-assessments.\nYou may modify input files while developing.\nFor submission: \n  * Use only 9V supply \n  * Connect "Stimulus" to your input\n  * Connect "VoutXXXX" to your output signals.\n  * Only one label name per net.
TEXT -2280 -1168 Left 2 ;Config file:
TEXT -2280 -1120 Left 2 ;Analysis setup:
TEXT -2272 -744 Left 2 ;Battery
TEXT -2280 -1032 Left 2 ;Sensor-\nemulating \nstimulus
TEXT -2272 -608 Left 2 ;Assessed nets:\nConnect to your outputs
TEXT -2304 -1656 Left 2 ;D.H. von Eschwege,  21785155\nDC = 2 V\nHeart rate pk = 38.85 mV
TEXT -1848 -1656 Left 2 !.incl TLC2272.lib
TEXT -1888 -1632 Left 2 !.incl LM78XX_RS.lib
TEXT -1816 -1608 Left 2 !.incl TL081.lib
TEXT -1896 -1584 Left 2 !.options numdgt = 7
TEXT -1936 -1560 Left 2 !.options plotwinsize = 0
TEXT -1824 -1536 Left 2 !.lib opamp.sub
LINE Normal -1792 -1008 -1856 -1008 2
LINE Normal -1792 -864 -1792 -1008 2
LINE Normal -1808 -880 -1792 -864 2
LINE Normal -1792 -864 -1808 -880 2
LINE Normal -1776 -880 -1792 -864 2
LINE Normal -2128 -1008 -2112 -1008 2
LINE Normal -2128 -928 -2128 -1008 2
LINE Normal -2128 -912 -2128 -928 2
LINE Normal -2096 -912 -2128 -912 2
LINE Normal -2112 -928 -2096 -912 2
LINE Normal -2096 -912 -2112 -928 2
LINE Normal -2112 -896 -2096 -912 2
LINE Normal -1968 -944 -1968 -992 2
LINE Normal -1856 -944 -1968 -944 2
LINE Normal -1856 -896 -1856 -944 2
LINE Normal -1872 -912 -1856 -896 2
LINE Normal -1856 -896 -1872 -912 2
LINE Normal -1840 -912 -1856 -896 2
LINE Normal -2304 -544 -2304 -1408 1
LINE Normal -1680 -1408 -1680 -544 1
LINE Normal -1680 -544 -2304 -544 1
LINE Normal -1680 -1408 -2304 -1408 1
