Version 4
SHEET 1 1824 680
WIRE -1344 -1264 -1440 -1264
WIRE -1264 -1264 -1344 -1264
WIRE -816 -1264 -1264 -1264
WIRE -464 -1264 -816 -1264
WIRE -1552 -1248 -1584 -1248
WIRE -1504 -1248 -1552 -1248
WIRE -1408 -1232 -1440 -1232
WIRE -768 -1216 -1056 -1216
WIRE -672 -1216 -704 -1216
WIRE -1552 -1200 -1552 -1248
WIRE -1344 -1200 -1344 -1264
WIRE -896 -1136 -896 -1152
WIRE -1552 -1104 -1552 -1136
WIRE -1408 -1104 -1408 -1232
WIRE -1344 -1104 -1344 -1136
WIRE -1840 -1072 -1888 -1072
WIRE -2032 -1056 -2080 -1056
WIRE -1936 -1056 -1984 -1056
WIRE -1888 -1056 -1888 -1072
WIRE -896 -1040 -896 -1056
WIRE -784 -1040 -896 -1040
WIRE -672 -1040 -672 -1216
WIRE -672 -1040 -704 -1040
WIRE -2032 -976 -2032 -1056
WIRE -1984 -976 -2032 -976
WIRE -1936 -976 -1936 -1056
WIRE -1888 -976 -1936 -976
WIRE -816 -976 -816 -1264
WIRE -2080 -960 -2080 -976
WIRE -896 -960 -896 -1040
WIRE -848 -960 -896 -960
WIRE -672 -944 -672 -1040
WIRE -672 -944 -784 -944
WIRE -1136 -928 -1152 -928
WIRE -1056 -928 -1056 -1216
WIRE -1040 -928 -1056 -928
WIRE -928 -928 -960 -928
WIRE -848 -928 -928 -928
WIRE -928 -912 -928 -928
WIRE -432 -864 -528 -864
WIRE -336 -864 -352 -864
WIRE -1264 -832 -1264 -1264
WIRE -672 -832 -672 -944
WIRE -928 -816 -928 -848
WIRE -816 -816 -816 -912
WIRE -2032 -768 -2096 -768
WIRE -464 -752 -464 -1264
WIRE -1264 -736 -1264 -752
WIRE -656 -736 -1264 -736
WIRE -528 -736 -528 -864
WIRE -528 -736 -576 -736
WIRE -496 -736 -528 -736
WIRE -2032 -720 -2032 -768
WIRE -1920 -720 -1952 -720
WIRE -1264 -720 -1264 -736
WIRE -336 -720 -336 -864
WIRE -336 -720 -432 -720
WIRE -304 -720 -336 -720
WIRE -672 -704 -672 -832
WIRE -656 -704 -672 -704
WIRE -560 -704 -576 -704
WIRE -496 -704 -560 -704
WIRE -560 -688 -560 -704
WIRE -336 -688 -336 -720
WIRE -1264 -624 -1264 -640
WIRE -1888 -608 -1936 -608
WIRE -560 -592 -560 -608
WIRE -464 -592 -464 -688
WIRE -336 -592 -336 -608
FLAG -304 -720 Vout
IOPIN -304 -720 Out
FLAG -2080 -960 0
FLAG -1840 -1072 Stimulus
FLAG -1920 -720 9V
IOPIN -1920 -720 Out
FLAG -2096 -688 0
FLAG -1584 -1248 9V
IOPIN -1584 -1248 In
FLAG -1888 -608 Vout
IOPIN -1888 -608 Out
FLAG -1408 -1104 0
FLAG -1552 -1104 0
FLAG -1344 -1104 0
FLAG -336 -592 0
FLAG -464 -592 0
FLAG -1264 -624 0
FLAG -560 -592 0
FLAG -1152 -928 Stimulus
FLAG -672 -832 Filtered
FLAG -816 -816 0
FLAG -928 -816 0
FLAG -896 -1152 0
SYMBOL voltage -1984 -1072 R0
WINDOW 123 0 0 Left 0
WINDOW 39 0 0 Left 0
WINDOW 3 -89 197 Left 2
WINDOW 0 -13 54 Left 2
SYMATTR Value PWL file=PWLinput.csv
SYMATTR InstName V2
SYMBOL voltage -1888 -1072 R0
WINDOW 123 24 44 Left 2
WINDOW 39 0 0 Left 0
WINDOW 3 -386 233 Left 2
WINDOW 0 -11 56 Left 2
SYMATTR Value SINE({sineOffset} {sineAmplitude} {sineFreq})
SYMATTR InstName V3
SYMBOL voltage -2080 -1072 R0
WINDOW 123 0 0 Left 0
WINDOW 39 0 0 Left 0
WINDOW 3 3 160 Left 2
WINDOW 0 -13 55 Left 2
SYMATTR Value {dcAmplitude}
SYMATTR InstName V1
SYMBOL voltage -2096 -784 R0
WINDOW 123 24 44 Left 2
WINDOW 39 0 0 Left 0
WINDOW 3 -46 76 Left 2
WINDOW 0 -13 57 Left 2
SYMATTR Value 9
SYMATTR InstName V4
SYMBOL res -1936 -736 R90
WINDOW 0 -9 30 VBottom 2
WINDOW 3 34 56 VTop 2
SYMATTR InstName R_Sense
SYMATTR Value 0.010
SYMBOL cap -1360 -1200 R0
SYMATTR InstName C1
SYMATTR Value 10µ
SYMBOL cap -1568 -1200 R0
SYMATTR InstName C2
SYMATTR Value 10µ
SYMBOL AutoGenerated\\LM7805 -1472 -1248 M180
SYMATTR InstName U2
SYMBOL res -352 -704 R0
SYMATTR InstName Rload
SYMATTR Value 100k
SYMBOL res -336 -880 R90
WINDOW 0 0 56 VBottom 2
WINDOW 3 32 56 VTop 2
SYMATTR InstName R3
SYMATTR Value 230k
SYMBOL res -560 -752 R90
WINDOW 0 2 80 VBottom 2
WINDOW 3 -26 27 VTop 2
SYMATTR InstName R1
SYMATTR Value 10k
SYMBOL Opamps\\opamp2 -464 -784 R0
SYMATTR InstName U1
SYMATTR Value TLC2272
SYMBOL res -1280 -736 R0
SYMATTR InstName R6
SYMATTR Value 5010
SYMBOL res -1280 -848 R0
SYMATTR InstName R5
SYMATTR Value 10k
SYMBOL res -576 -704 R0
SYMATTR InstName R4
SYMATTR Value 230k
SYMBOL res -560 -720 R90
WINDOW 0 57 84 VBottom 2
WINDOW 3 29 38 VTop 2
SYMATTR InstName R2
SYMATTR Value 10k
SYMBOL res -1040 -944 R90
WINDOW 0 0 56 VBottom 2
WINDOW 3 32 56 VTop 2
SYMATTR InstName R7
SYMATTR Value 100k
SYMBOL cap -944 -912 R0
SYMATTR InstName C4
SYMATTR Value 150n
SYMBOL Opamps\\opamp2 -816 -1008 R0
SYMATTR InstName U4
SYMATTR Value TL081
SYMBOL res -944 -944 R90
WINDOW 0 0 56 VBottom 2
WINDOW 3 32 56 VTop 2
SYMATTR InstName R9
SYMATTR Value 100k
SYMBOL res -688 -1056 R90
WINDOW 0 0 56 VBottom 2
WINDOW 3 32 56 VTop 2
SYMATTR InstName Ra
SYMATTR Value 5k
SYMBOL res -880 -1152 M0
SYMATTR InstName Rb
SYMATTR Value 500k
SYMBOL cap -704 -1232 R90
WINDOW 0 0 32 VBottom 2
WINDOW 3 32 32 VTop 2
SYMATTR InstName C5
SYMATTR Value 150n
TEXT -2080 -1120 Left 2 !.tran 0 {transtop} 0 {timestep}
TEXT -1952 -1168 Left 2 !.include E344cfg.txt
TEXT -2288 -1384 Left 2 ;Don't change these -- used for auto-assessments.\nYou may modify input files while developing.\nFor submission: \n  * Use only 9V supply \n  * Connect "Stimulus" to your input\n  * Connect "Vout" to your output.\n  * Only one label name per net.
TEXT -2280 -1168 Left 2 ;Config file:
TEXT -2280 -1120 Left 2 ;Analysis setup:
TEXT -2272 -744 Left 2 ;Battery
TEXT -2280 -1032 Left 2 ;Sensor-\nemulating \nstimulus
TEXT -2272 -608 Left 2 ;Assessed nets:\nConnect to your outputs
TEXT -1632 -1400 Left 2 ;D. H. von Eschwege, 21785155\nV(0degV) = 440mV\ndeltaV/degV = 35mV
TEXT -424 -1392 Left 2 !.incl TLC2272.lib
TEXT -464 -1360 Left 2 !.incl LM78XX_RS.lib
TEXT -392 -1328 Left 2 !.incl TL081.lib
LINE Normal -1792 -1008 -1856 -1008 2
LINE Normal -1792 -864 -1792 -1008 2
LINE Normal -1808 -880 -1792 -864 2
LINE Normal -1792 -864 -1808 -880 2
LINE Normal -1776 -880 -1792 -864 2
LINE Normal -2128 -1008 -2112 -1008 2
LINE Normal -2128 -928 -2128 -1008 2
LINE Normal -2128 -912 -2128 -928 2
LINE Normal -2096 -912 -2128 -912 2
LINE Normal -2112 -928 -2096 -912 2
LINE Normal -2096 -912 -2112 -928 2
LINE Normal -2112 -896 -2096 -912 2
LINE Normal -1968 -944 -1968 -992 2
LINE Normal -1856 -944 -1968 -944 2
LINE Normal -1856 -896 -1856 -944 2
LINE Normal -1872 -912 -1856 -896 2
LINE Normal -1856 -896 -1872 -912 2
LINE Normal -1840 -912 -1856 -896 2
LINE Normal -2304 -544 -2304 -1408 1
LINE Normal -1680 -1408 -1680 -544 1
LINE Normal -1680 -544 -2304 -544 1
LINE Normal -1680 -1408 -2304 -1408 1
