Version 4
SHEET 1 880 680
SYMBOL Opamps\\opamp2 144 96 R0
WINDOW 0 23 22 Left 2
WINDOW 3 20 43 Left 2
SYMATTR InstName U1
SYMATTR Value TLC2272
TEXT 288 32 Left 2 !.incl TLC2272.lib
TEXT 248 64 Left 2 !.incl LM78XX_RS.lib
