Version 4
SHEET 1 1824 680
WIRE -1344 -1264 -1440 -1264
WIRE -1264 -1264 -1344 -1264
WIRE -816 -1264 -1264 -1264
WIRE -224 -1264 -816 -1264
WIRE 176 -1264 -224 -1264
WIRE -1552 -1248 -1584 -1248
WIRE -1504 -1248 -1552 -1248
WIRE -1408 -1232 -1440 -1232
WIRE -176 -1216 -464 -1216
WIRE -80 -1216 -112 -1216
WIRE -1552 -1200 -1552 -1248
WIRE -1344 -1200 -1344 -1264
WIRE -768 -1200 -1056 -1200
WIRE -672 -1200 -704 -1200
WIRE -304 -1136 -304 -1152
WIRE -896 -1120 -896 -1136
WIRE -1552 -1104 -1552 -1136
WIRE -1408 -1104 -1408 -1232
WIRE -1344 -1104 -1344 -1136
WIRE -1840 -1072 -1888 -1072
WIRE -2032 -1056 -2080 -1056
WIRE -1936 -1056 -1984 -1056
WIRE -1888 -1056 -1888 -1072
WIRE -304 -1040 -304 -1056
WIRE -192 -1040 -304 -1040
WIRE -80 -1040 -80 -1216
WIRE -80 -1040 -112 -1040
WIRE -896 -1024 -896 -1040
WIRE -784 -1024 -896 -1024
WIRE -672 -1024 -672 -1200
WIRE -672 -1024 -704 -1024
WIRE -2032 -976 -2032 -1056
WIRE -1984 -976 -2032 -976
WIRE -1936 -976 -1936 -1056
WIRE -1888 -976 -1936 -976
WIRE -224 -976 -224 -1264
WIRE -2080 -960 -2080 -976
WIRE -816 -960 -816 -1264
WIRE -304 -960 -304 -1040
WIRE -256 -960 -304 -960
WIRE -896 -944 -896 -1024
WIRE -848 -944 -896 -944
WIRE -80 -944 -80 -1040
WIRE -80 -944 -192 -944
WIRE -672 -928 -672 -1024
WIRE -672 -928 -784 -928
WIRE -544 -928 -672 -928
WIRE -464 -928 -464 -1216
WIRE -448 -928 -464 -928
WIRE -336 -928 -368 -928
WIRE -256 -928 -336 -928
WIRE -1136 -912 -1152 -912
WIRE -1056 -912 -1056 -1200
WIRE -1040 -912 -1056 -912
WIRE -928 -912 -960 -912
WIRE -848 -912 -928 -912
WIRE -336 -912 -336 -928
WIRE -928 -896 -928 -912
WIRE 208 -864 112 -864
WIRE 304 -864 288 -864
WIRE -1264 -832 -1264 -1264
WIRE -336 -816 -336 -848
WIRE -224 -816 -224 -912
WIRE -928 -800 -928 -832
WIRE -816 -800 -816 -896
WIRE -2032 -768 -2096 -768
WIRE 176 -752 176 -1264
WIRE -1264 -736 -1264 -752
WIRE -16 -736 -1264 -736
WIRE 112 -736 112 -864
WIRE 112 -736 64 -736
WIRE 144 -736 112 -736
WIRE -2032 -720 -2032 -768
WIRE -1920 -720 -1952 -720
WIRE -1264 -720 -1264 -736
WIRE 304 -720 304 -864
WIRE 304 -720 208 -720
WIRE 352 -720 304 -720
WIRE -80 -704 -80 -944
WIRE -16 -704 -80 -704
WIRE 80 -704 64 -704
WIRE 144 -704 80 -704
WIRE 80 -688 80 -704
WIRE 304 -688 304 -720
WIRE -1264 -624 -1264 -640
WIRE -1888 -608 -1936 -608
WIRE 80 -592 80 -608
WIRE 176 -592 176 -688
WIRE 304 -592 304 -608
FLAG 352 -720 Vout
IOPIN 352 -720 Out
FLAG -2080 -960 0
FLAG -1840 -1072 Stimulus
FLAG -1920 -720 9V
IOPIN -1920 -720 Out
FLAG -2096 -688 0
FLAG -1584 -1248 9V
IOPIN -1584 -1248 In
FLAG -1888 -608 Vout
IOPIN -1888 -608 Out
FLAG -1408 -1104 0
FLAG -1552 -1104 0
FLAG -1344 -1104 0
FLAG 304 -592 0
FLAG 176 -592 0
FLAG -1264 -624 0
FLAG 80 -592 0
FLAG -1152 -912 Stimulus
FLAG -816 -800 0
FLAG -928 -800 0
FLAG -896 -1136 0
FLAG -224 -816 0
FLAG -336 -816 0
FLAG -304 -1152 0
SYMBOL voltage -1984 -1072 R0
WINDOW 123 0 0 Left 0
WINDOW 39 0 0 Left 0
WINDOW 3 -89 197 Left 2
WINDOW 0 -13 54 Left 2
SYMATTR Value PWL file=PWLinput.csv
SYMATTR InstName V2
SYMBOL voltage -1888 -1072 R0
WINDOW 123 24 44 Left 2
WINDOW 39 0 0 Left 0
WINDOW 3 -386 233 Left 2
WINDOW 0 -11 56 Left 2
SYMATTR Value SINE({sineOffset} {sineAmplitude} {sineFreq})
SYMATTR InstName V3
SYMBOL voltage -2080 -1072 R0
WINDOW 123 0 0 Left 0
WINDOW 39 0 0 Left 0
WINDOW 3 3 160 Left 2
WINDOW 0 -13 55 Left 2
SYMATTR Value {dcAmplitude}
SYMATTR InstName V1
SYMBOL voltage -2096 -784 R0
WINDOW 123 24 44 Left 2
WINDOW 39 0 0 Left 0
WINDOW 3 -46 76 Left 2
WINDOW 0 -13 57 Left 2
SYMATTR Value 9
SYMATTR InstName V4
SYMBOL res -1936 -736 R90
WINDOW 0 -9 30 VBottom 2
WINDOW 3 34 56 VTop 2
SYMATTR InstName R_Sense
SYMATTR Value 0.010
SYMBOL cap -1360 -1200 R0
SYMATTR InstName C1
SYMATTR Value 10µ
SYMBOL cap -1568 -1200 R0
SYMATTR InstName C2
SYMATTR Value 10µ
SYMBOL AutoGenerated\\LM7805 -1472 -1248 M180
SYMATTR InstName U2
SYMBOL res 288 -704 R0
SYMATTR InstName Rload
SYMATTR Value 100k
SYMBOL res 304 -880 R90
WINDOW 0 0 56 VBottom 2
WINDOW 3 32 56 VTop 2
SYMATTR InstName R3
SYMATTR Value 230k
SYMBOL res 80 -752 R90
WINDOW 0 2 80 VBottom 2
WINDOW 3 -26 27 VTop 2
SYMATTR InstName R1
SYMATTR Value 10k
SYMBOL Opamps\\opamp2 176 -784 R0
SYMATTR InstName U1
SYMATTR Value TLC2272
SYMBOL res -1280 -736 R0
SYMATTR InstName R6
SYMATTR Value 5105
SYMBOL res -1280 -848 R0
SYMATTR InstName R5
SYMATTR Value 10k
SYMBOL res 64 -704 R0
SYMATTR InstName R4
SYMATTR Value 230k
SYMBOL res 80 -720 R90
WINDOW 0 57 84 VBottom 2
WINDOW 3 29 38 VTop 2
SYMATTR InstName R2
SYMATTR Value 10k
SYMBOL res -1040 -928 R90
WINDOW 0 0 56 VBottom 2
WINDOW 3 32 56 VTop 2
SYMATTR InstName R7
SYMATTR Value 100k
SYMBOL cap -944 -896 R0
SYMATTR InstName C4
SYMATTR Value 100n
SYMBOL res -944 -928 R90
WINDOW 0 0 56 VBottom 2
WINDOW 3 32 56 VTop 2
SYMATTR InstName R9
SYMATTR Value 100k
SYMBOL res -688 -1040 R90
WINDOW 0 0 56 VBottom 2
WINDOW 3 32 56 VTop 2
SYMATTR InstName Ra
SYMATTR Value 5k
SYMBOL res -880 -1136 M0
SYMATTR InstName Rb
SYMATTR Value 500k
SYMBOL cap -704 -1216 R90
WINDOW 0 0 32 VBottom 2
WINDOW 3 32 32 VTop 2
SYMATTR InstName C5
SYMATTR Value 100n
SYMBOL res -448 -944 R90
WINDOW 0 0 56 VBottom 2
WINDOW 3 32 56 VTop 2
SYMATTR InstName R8
SYMATTR Value 100k
SYMBOL cap -352 -912 R0
SYMATTR InstName C3
SYMATTR Value 100n
SYMBOL Opamps\\opamp2 -224 -1008 R0
SYMATTR InstName U3
SYMATTR Value TL081
SYMBOL res -352 -944 R90
WINDOW 0 0 56 VBottom 2
WINDOW 3 32 56 VTop 2
SYMATTR InstName R10
SYMATTR Value 100k
SYMBOL res -96 -1056 R90
WINDOW 0 0 56 VBottom 2
WINDOW 3 32 56 VTop 2
SYMATTR InstName Ra1
SYMATTR Value 5k
SYMBOL res -288 -1152 M0
SYMATTR InstName Rb1
SYMATTR Value 500k
SYMBOL cap -112 -1232 R90
WINDOW 0 0 32 VBottom 2
WINDOW 3 32 32 VTop 2
SYMATTR InstName C6
SYMATTR Value 100n
SYMBOL Opamps\\opamp2 -816 -992 R0
SYMATTR InstName U4
SYMATTR Value TLC2272
TEXT -2080 -1120 Left 2 !.tran 0 {transtop} 0 {timestep}
TEXT -1952 -1168 Left 2 !.include E344cfg.txt
TEXT -2288 -1384 Left 2 ;Don't change these -- used for auto-assessments.\nYou may modify input files while developing.\nFor submission: \n  * Use only 9V supply \n  * Connect "Stimulus" to your input\n  * Connect "Vout" to your output.\n  * Only one label name per net.
TEXT -2280 -1168 Left 2 ;Config file:
TEXT -2280 -1120 Left 2 ;Analysis setup:
TEXT -2272 -744 Left 2 ;Battery
TEXT -2280 -1032 Left 2 ;Sensor-\nemulating \nstimulus
TEXT -2272 -608 Left 2 ;Assessed nets:\nConnect to your outputs
TEXT -1632 -1400 Left 2 ;D. H. von Eschwege, 21785155\nV(0degV) = 440mV\ndeltaV/degV = 35mV
TEXT 232 -1472 Left 2 !.incl TLC2272.lib
TEXT 192 -1440 Left 2 !.incl LM78XX_RS.lib
TEXT 264 -1408 Left 2 !.incl TL081.lib
LINE Normal -1792 -1008 -1856 -1008 2
LINE Normal -1792 -864 -1792 -1008 2
LINE Normal -1808 -880 -1792 -864 2
LINE Normal -1792 -864 -1808 -880 2
LINE Normal -1776 -880 -1792 -864 2
LINE Normal -2128 -1008 -2112 -1008 2
LINE Normal -2128 -928 -2128 -1008 2
LINE Normal -2128 -912 -2128 -928 2
LINE Normal -2096 -912 -2128 -912 2
LINE Normal -2112 -928 -2096 -912 2
LINE Normal -2096 -912 -2112 -928 2
LINE Normal -2112 -896 -2096 -912 2
LINE Normal -1968 -944 -1968 -992 2
LINE Normal -1856 -944 -1968 -944 2
LINE Normal -1856 -896 -1856 -944 2
LINE Normal -1872 -912 -1856 -896 2
LINE Normal -1856 -896 -1872 -912 2
LINE Normal -1840 -912 -1856 -896 2
LINE Normal -2304 -544 -2304 -1408 1
LINE Normal -1680 -1408 -1680 -544 1
LINE Normal -1680 -544 -2304 -544 1
LINE Normal -1680 -1408 -2304 -1408 1
