Version 4
SHEET 1 1824 680
WIRE -1344 -1264 -1440 -1264
WIRE -1264 -1264 -1344 -1264
WIRE -960 -1264 -1264 -1264
WIRE -544 -1264 -960 -1264
WIRE -1552 -1248 -1584 -1248
WIRE -1504 -1248 -1552 -1248
WIRE -1408 -1232 -1440 -1232
WIRE -928 -1216 -1024 -1216
WIRE -800 -1216 -864 -1216
WIRE -1552 -1200 -1552 -1248
WIRE -1344 -1200 -1344 -1264
WIRE -1024 -1120 -1024 -1216
WIRE -928 -1120 -1024 -1120
WIRE -800 -1120 -800 -1216
WIRE -800 -1120 -848 -1120
WIRE -1552 -1104 -1552 -1136
WIRE -1408 -1104 -1408 -1232
WIRE -1344 -1104 -1344 -1136
WIRE -1840 -1072 -1888 -1072
WIRE -960 -1072 -960 -1264
WIRE -2032 -1056 -2080 -1056
WIRE -1936 -1056 -1984 -1056
WIRE -1888 -1056 -1888 -1072
WIRE -1136 -1056 -1152 -1056
WIRE -1024 -1056 -1024 -1120
WIRE -1024 -1056 -1056 -1056
WIRE -992 -1056 -1024 -1056
WIRE -800 -1040 -800 -1120
WIRE -800 -1040 -928 -1040
WIRE -512 -1040 -608 -1040
WIRE -352 -1040 -432 -1040
WIRE -992 -1024 -1008 -1024
WIRE -1264 -1008 -1264 -1264
WIRE -2032 -976 -2032 -1056
WIRE -1984 -976 -2032 -976
WIRE -1936 -976 -1936 -1056
WIRE -1888 -976 -1936 -976
WIRE -2080 -960 -2080 -976
WIRE -1008 -944 -1008 -1024
WIRE -960 -944 -960 -1008
WIRE -544 -928 -544 -1264
WIRE -1264 -912 -1264 -928
WIRE -768 -912 -1264 -912
WIRE -608 -912 -608 -1040
WIRE -608 -912 -688 -912
WIRE -576 -912 -608 -912
WIRE -1264 -896 -1264 -912
WIRE -352 -896 -352 -1040
WIRE -352 -896 -512 -896
WIRE -320 -896 -352 -896
WIRE -800 -880 -800 -1040
WIRE -768 -880 -800 -880
WIRE -640 -880 -688 -880
WIRE -576 -880 -640 -880
WIRE -640 -864 -640 -880
WIRE -352 -864 -352 -896
WIRE -1264 -800 -1264 -816
WIRE -2032 -768 -2096 -768
WIRE -640 -768 -640 -784
WIRE -544 -768 -544 -864
WIRE -352 -768 -352 -784
WIRE -2032 -720 -2032 -768
WIRE -1920 -720 -1952 -720
WIRE -1888 -608 -1936 -608
WIRE -16 -512 -16 -528
FLAG -320 -896 Out
IOPIN -320 -896 Out
FLAG -2080 -960 0
FLAG -1840 -1072 Stimulus
FLAG -1920 -720 9V
IOPIN -1920 -720 Out
FLAG -2096 -688 0
FLAG -1584 -1248 9V
IOPIN -1584 -1248 In
FLAG -1888 -608 Vout
IOPIN -1888 -608 Out
FLAG -1408 -1104 0
FLAG -1552 -1104 0
FLAG -1344 -1104 0
FLAG -352 -768 0
FLAG -16 -512 0
FLAG -544 -768 0
FLAG -1264 -800 0
FLAG -640 -768 0
FLAG -960 -944 0
FLAG -1008 -944 0
FLAG -1152 -1056 Stimulus
FLAG -800 -880 In
SYMBOL voltage -1984 -1072 R0
WINDOW 123 0 0 Left 0
WINDOW 39 0 0 Left 0
WINDOW 3 -89 197 Left 2
WINDOW 0 -13 54 Left 2
SYMATTR Value PWL file=PWLinput.csv
SYMATTR InstName V2
SYMBOL voltage -1888 -1072 R0
WINDOW 123 24 44 Left 2
WINDOW 39 0 0 Left 0
WINDOW 3 -386 233 Left 2
WINDOW 0 -11 56 Left 2
SYMATTR Value SINE({sineOffset} {sineAmplitude} {sineFreq})
SYMATTR InstName V3
SYMBOL voltage -2080 -1072 R0
WINDOW 123 0 0 Left 0
WINDOW 39 0 0 Left 0
WINDOW 3 3 160 Left 2
WINDOW 0 -13 55 Left 2
SYMATTR Value {dcAmplitude}
SYMATTR InstName V1
SYMBOL voltage -2096 -784 R0
WINDOW 123 24 44 Left 2
WINDOW 39 0 0 Left 0
WINDOW 3 -46 76 Left 2
WINDOW 0 -13 57 Left 2
SYMATTR Value 9
SYMATTR InstName V4
SYMBOL res -1936 -736 R90
WINDOW 0 -9 30 VBottom 2
WINDOW 3 34 56 VTop 2
SYMATTR InstName R_Sense
SYMATTR Value 0.010
SYMBOL cap -1360 -1200 R0
SYMATTR InstName C1
SYMATTR Value 10µ
SYMBOL cap -1568 -1200 R0
SYMATTR InstName C2
SYMATTR Value 10µ
SYMBOL AutoGenerated\\LM7805 -1472 -1248 M180
SYMATTR InstName U2
SYMBOL res -368 -880 R0
SYMATTR InstName Rload
SYMATTR Value 100k
SYMBOL res -416 -1056 R90
WINDOW 0 0 56 VBottom 2
WINDOW 3 32 56 VTop 2
SYMATTR InstName R3
SYMATTR Value 180k
SYMBOL res -672 -928 R90
WINDOW 0 2 80 VBottom 2
WINDOW 3 -26 27 VTop 2
SYMATTR InstName R1
SYMATTR Value 10k
SYMBOL voltage -16 -624 M0
WINDOW 123 0 0 Left 0
WINDOW 39 0 0 Left 0
WINDOW 3 5 98 Left 2
SYMATTR InstName V5
SYMATTR Value SINE(1.77 0.14 50)
SYMBOL Opamps\\opamp2 -544 -960 R0
SYMATTR InstName U1
SYMATTR Value TLC2272
SYMBOL res -1280 -912 R0
SYMATTR InstName R6
SYMATTR Value 4765
SYMBOL res -1280 -1024 R0
SYMATTR InstName R5
SYMATTR Value 10k
SYMBOL res -656 -880 R0
SYMATTR InstName R4
SYMATTR Value 180k
SYMBOL res -672 -896 R90
WINDOW 0 57 84 VBottom 2
WINDOW 3 29 38 VTop 2
SYMATTR InstName R2
SYMATTR Value 10k
SYMBOL Opamps\\opamp2 -960 -1104 R0
SYMATTR InstName U3
SYMATTR Value TL081
SYMBOL res -1040 -1072 R90
WINDOW 0 0 56 VBottom 2
WINDOW 3 32 56 VTop 2
SYMATTR InstName R7
SYMATTR Value 10k
SYMBOL res -832 -1136 R90
WINDOW 0 0 56 VBottom 2
WINDOW 3 32 56 VTop 2
SYMATTR InstName R8
SYMATTR Value 10k
SYMBOL cap -864 -1232 R90
WINDOW 0 0 32 VBottom 2
WINDOW 3 32 32 VTop 2
SYMATTR InstName C3
SYMATTR Value 318.31n
TEXT -2080 -1120 Left 2 !.tran 0 {transtop} 0 {timestep}
TEXT -1952 -1168 Left 2 !.include E344cfg.txt
TEXT -2288 -1384 Left 2 ;Don't change these -- used for auto-assessments.\nYou may modify input files while developing.\nFor submission: \n  * Use only 9V supply \n  * Connect "Stimulus" to your input\n  * Connect "Vout" to your output.\n  * Only one label name per net.
TEXT -2280 -1168 Left 2 ;Config file:
TEXT -2280 -1120 Left 2 ;Analysis setup:
TEXT -2272 -744 Left 2 ;Battery
TEXT -2280 -1032 Left 2 ;Sensor-\nemulating \nstimulus
TEXT -2272 -608 Left 2 ;Assessed nets:\nConnect to your outputs
TEXT -1632 -1400 Left 2 ;D. H. von Eschwege, 21785155\nV(0degV) = 440mV\ndeltaV/degV = 35mV
TEXT -168 -1408 Left 2 !.incl TLC2272.lib
TEXT -208 -1376 Left 2 !.incl LM78XX_RS.lib
TEXT -136 -1344 Left 2 !.incl TL081.lib
LINE Normal -1792 -1008 -1856 -1008 2
LINE Normal -1792 -864 -1792 -1008 2
LINE Normal -1808 -880 -1792 -864 2
LINE Normal -1792 -864 -1808 -880 2
LINE Normal -1776 -880 -1792 -864 2
LINE Normal -2128 -1008 -2112 -1008 2
LINE Normal -2128 -928 -2128 -1008 2
LINE Normal -2128 -912 -2128 -928 2
LINE Normal -2096 -912 -2128 -912 2
LINE Normal -2112 -928 -2096 -912 2
LINE Normal -2096 -912 -2112 -928 2
LINE Normal -2112 -896 -2096 -912 2
LINE Normal -1968 -944 -1968 -992 2
LINE Normal -1856 -944 -1968 -944 2
LINE Normal -1856 -896 -1856 -944 2
LINE Normal -1872 -912 -1856 -896 2
LINE Normal -1856 -896 -1872 -912 2
LINE Normal -1840 -912 -1856 -896 2
LINE Normal -2304 -544 -2304 -1408 1
LINE Normal -1680 -1408 -1680 -544 1
LINE Normal -1680 -544 -2304 -544 1
LINE Normal -1680 -1408 -2304 -1408 1
