Version 4
SHEET 1 1824 680
WIRE -1344 -1264 -1440 -1264
WIRE -1168 -1264 -1344 -1264
WIRE -1056 -1264 -1168 -1264
WIRE -1552 -1248 -1584 -1248
WIRE -1504 -1248 -1552 -1248
WIRE -1408 -1232 -1440 -1232
WIRE -1552 -1200 -1552 -1248
WIRE -1344 -1200 -1344 -1264
WIRE -1552 -1104 -1552 -1136
WIRE -1408 -1104 -1408 -1232
WIRE -1344 -1104 -1344 -1136
WIRE -1840 -1072 -1888 -1072
WIRE -2032 -1056 -2080 -1056
WIRE -1936 -1056 -1984 -1056
WIRE -1888 -1056 -1888 -1072
WIRE -2032 -976 -2032 -1056
WIRE -1984 -976 -2032 -976
WIRE -1936 -976 -1936 -1056
WIRE -1888 -976 -1936 -976
WIRE -2080 -960 -2080 -976
WIRE -1536 -912 -1536 -944
WIRE -1264 -880 -1264 -896
WIRE -1168 -880 -1168 -1264
WIRE -1024 -864 -1120 -864
WIRE -864 -864 -944 -864
WIRE -2032 -768 -2096 -768
WIRE -1056 -752 -1056 -1264
WIRE -1264 -736 -1264 -800
WIRE -1168 -736 -1168 -800
WIRE -1168 -736 -1264 -736
WIRE -1120 -736 -1120 -864
WIRE -1120 -736 -1168 -736
WIRE -1088 -736 -1120 -736
WIRE -2032 -720 -2032 -768
WIRE -1920 -720 -1952 -720
WIRE -864 -720 -864 -864
WIRE -864 -720 -1024 -720
WIRE -832 -720 -864 -720
WIRE -1376 -704 -1456 -704
WIRE -1120 -704 -1296 -704
WIRE -1088 -704 -1120 -704
WIRE -1456 -688 -1456 -704
WIRE -1120 -688 -1120 -704
WIRE -864 -688 -864 -720
WIRE -1888 -608 -1936 -608
WIRE -1456 -592 -1456 -608
WIRE -1120 -592 -1120 -608
WIRE -1056 -592 -1056 -688
WIRE -864 -592 -864 -608
FLAG -832 -720 Vout
IOPIN -832 -720 Out
FLAG -2080 -960 0
FLAG -1840 -1072 Stimulus
FLAG -1920 -720 9V
IOPIN -1920 -720 Out
FLAG -2096 -688 0
FLAG -1584 -1248 9V
IOPIN -1584 -1248 In
FLAG -1888 -608 Vout
IOPIN -1888 -608 Out
FLAG -1536 -944 Stimulus
FLAG -1408 -1104 0
FLAG -1552 -1104 0
FLAG -1344 -1104 0
FLAG -864 -592 0
FLAG -1120 -592 0
FLAG -1456 -592 0
FLAG -1056 -592 0
FLAG -1456 -704 Vin
FLAG -1264 -896 0
SYMBOL voltage -1984 -1072 R0
WINDOW 123 0 0 Left 0
WINDOW 39 0 0 Left 0
WINDOW 3 -89 197 Left 2
WINDOW 0 -13 54 Left 2
SYMATTR Value PWL file=PWLinput.csv
SYMATTR InstName V2
SYMBOL voltage -1888 -1072 R0
WINDOW 123 24 44 Left 2
WINDOW 39 0 0 Left 0
WINDOW 3 -386 233 Left 2
WINDOW 0 -11 56 Left 2
SYMATTR Value SINE({sineOffset} {sineAmplitude} {sineFreq})
SYMATTR InstName V3
SYMBOL voltage -2080 -1072 R0
WINDOW 123 0 0 Left 0
WINDOW 39 0 0 Left 0
WINDOW 3 3 160 Left 2
WINDOW 0 -13 55 Left 2
SYMATTR Value {dcAmplitude}
SYMATTR InstName V1
SYMBOL voltage -2096 -784 R0
WINDOW 123 24 44 Left 2
WINDOW 39 0 0 Left 0
WINDOW 3 -46 76 Left 2
WINDOW 0 -13 57 Left 2
SYMATTR Value 9
SYMATTR InstName V4
SYMBOL res -1936 -736 R90
WINDOW 0 -9 30 VBottom 2
WINDOW 3 34 56 VTop 2
SYMATTR InstName R_Sense
SYMATTR Value 0.010
SYMBOL cap -1360 -1200 R0
SYMATTR InstName C1
SYMATTR Value 10µ
SYMBOL cap -1568 -1200 R0
SYMATTR InstName C2
SYMATTR Value 10µ
SYMBOL AutoGenerated\\LM7805 -1472 -1248 M180
SYMATTR InstName U2
SYMBOL res -1152 -784 R180
WINDOW 0 36 76 Left 2
WINDOW 3 36 40 Left 2
SYMATTR InstName R1
SYMATTR Value 10k
SYMBOL res -1104 -592 R180
WINDOW 0 36 76 Left 2
WINDOW 3 36 40 Left 2
SYMATTR InstName R4
SYMATTR Value 100k
SYMBOL res -880 -704 R0
SYMATTR InstName Rload
SYMATTR Value 100k
SYMBOL res -928 -880 R90
WINDOW 0 0 56 VBottom 2
WINDOW 3 32 56 VTop 2
SYMATTR InstName R3
SYMATTR Value 100k
SYMBOL res -1280 -720 R90
WINDOW 0 0 56 VBottom 2
WINDOW 3 32 56 VTop 2
SYMATTR InstName R2
SYMATTR Value 10k
SYMBOL voltage -1456 -704 R0
WINDOW 123 0 0 Left 0
WINDOW 39 0 0 Left 0
SYMATTR InstName V5
SYMATTR Value SINE(1.77 0.14 50)
SYMBOL Opamps\\opamp2 -1056 -784 R0
SYMATTR InstName U1
SYMATTR Value TLC2272
SYMBOL res -1248 -896 M0
SYMATTR InstName R5
SYMATTR Value 4367
TEXT -2080 -1120 Left 2 !.tran 0 {transtop} 0 {timestep}
TEXT -1952 -1168 Left 2 !.include E344cfg.txt
TEXT -2288 -1384 Left 2 ;Don't change these -- used for auto-assessments.\nYou may modify input files while developing.\nFor submission: \n  * Use only 9V supply \n  * Connect "Stimulus" to your input\n  * Connect "Vout" to your output.\n  * Only one label name per net.
TEXT -2280 -1168 Left 2 ;Config file:
TEXT -2280 -1120 Left 2 ;Analysis setup:
TEXT -2272 -744 Left 2 ;Battery
TEXT -2280 -1032 Left 2 ;Sensor-\nemulating \nstimulus
TEXT -2272 -608 Left 2 ;Assessed nets:\nConnect to your outputs
TEXT -1632 -1400 Left 2 ;D. H. von Eschwege, 21785155\nV(0degV) = 440mV\ndeltaV/degV = 35mV
TEXT -896 -1400 Left 2 !.incl TLC2272.lib
TEXT -936 -1368 Left 2 !.incl LM78XX_RS.lib
LINE Normal -1792 -1008 -1856 -1008 2
LINE Normal -1792 -864 -1792 -1008 2
LINE Normal -1808 -880 -1792 -864 2
LINE Normal -1792 -864 -1808 -880 2
LINE Normal -1776 -880 -1792 -864 2
LINE Normal -2128 -1008 -2112 -1008 2
LINE Normal -2128 -928 -2128 -1008 2
LINE Normal -2128 -912 -2128 -928 2
LINE Normal -2096 -912 -2128 -912 2
LINE Normal -2112 -928 -2096 -912 2
LINE Normal -2096 -912 -2112 -928 2
LINE Normal -2112 -896 -2096 -912 2
LINE Normal -1968 -944 -1968 -992 2
LINE Normal -1856 -944 -1968 -944 2
LINE Normal -1856 -896 -1856 -944 2
LINE Normal -1872 -912 -1856 -896 2
LINE Normal -1856 -896 -1872 -912 2
LINE Normal -1840 -912 -1856 -896 2
LINE Normal -2304 -544 -2304 -1408 1
LINE Normal -1680 -1408 -1680 -544 1
LINE Normal -1680 -544 -2304 -544 1
LINE Normal -1680 -1408 -2304 -1408 1
