Version 4
SHEET 1 1824 680
WIRE -1344 -1264 -1440 -1264
WIRE -1264 -1264 -1344 -1264
WIRE -912 -1264 -1264 -1264
WIRE -640 -1264 -912 -1264
WIRE -1552 -1248 -1584 -1248
WIRE -1504 -1248 -1552 -1248
WIRE -848 -1248 -976 -1248
WIRE -1408 -1232 -1440 -1232
WIRE -912 -1216 -912 -1264
WIRE -1552 -1200 -1552 -1248
WIRE -1344 -1200 -1344 -1264
WIRE -976 -1200 -976 -1248
WIRE -944 -1200 -976 -1200
WIRE -848 -1184 -848 -1248
WIRE -848 -1184 -880 -1184
WIRE -1120 -1168 -1136 -1168
WIRE -1024 -1168 -1040 -1168
WIRE -944 -1168 -1024 -1168
WIRE -608 -1152 -704 -1152
WIRE -512 -1152 -528 -1152
WIRE -1024 -1136 -1024 -1168
WIRE -1264 -1120 -1264 -1264
WIRE -1552 -1104 -1552 -1136
WIRE -1408 -1104 -1408 -1232
WIRE -1344 -1104 -1344 -1136
WIRE -848 -1088 -848 -1184
WIRE -1840 -1072 -1888 -1072
WIRE -2032 -1056 -2080 -1056
WIRE -1936 -1056 -1984 -1056
WIRE -1888 -1056 -1888 -1072
WIRE -1024 -1056 -1024 -1072
WIRE -912 -1056 -912 -1152
WIRE -640 -1040 -640 -1264
WIRE -1264 -1024 -1264 -1040
WIRE -832 -1024 -1264 -1024
WIRE -704 -1024 -704 -1152
WIRE -704 -1024 -752 -1024
WIRE -672 -1024 -704 -1024
WIRE -1264 -1008 -1264 -1024
WIRE -512 -1008 -512 -1152
WIRE -512 -1008 -608 -1008
WIRE -480 -1008 -512 -1008
WIRE -848 -992 -848 -1088
WIRE -832 -992 -848 -992
WIRE -736 -992 -752 -992
WIRE -672 -992 -736 -992
WIRE -2032 -976 -2032 -1056
WIRE -1984 -976 -2032 -976
WIRE -1936 -976 -1936 -1056
WIRE -1888 -976 -1936 -976
WIRE -736 -976 -736 -992
WIRE -512 -976 -512 -1008
WIRE -2080 -960 -2080 -976
WIRE -1264 -912 -1264 -928
WIRE -736 -880 -736 -896
WIRE -640 -880 -640 -976
WIRE -512 -880 -512 -896
WIRE -2032 -768 -2096 -768
WIRE -2032 -720 -2032 -768
WIRE -1920 -720 -1952 -720
WIRE -1888 -608 -1936 -608
WIRE -384 -560 -384 -576
FLAG -480 -1008 Vout
IOPIN -480 -1008 Out
FLAG -2080 -960 0
FLAG -1840 -1072 Stimulus
FLAG -1920 -720 9V
IOPIN -1920 -720 Out
FLAG -2096 -688 0
FLAG -1584 -1248 9V
IOPIN -1584 -1248 In
FLAG -1888 -608 Vout
IOPIN -1888 -608 Out
FLAG -1408 -1104 0
FLAG -1552 -1104 0
FLAG -1344 -1104 0
FLAG -512 -880 0
FLAG -384 -560 0
FLAG -640 -880 0
FLAG -1264 -912 0
FLAG -736 -880 0
FLAG -1136 -1168 Stimulus
FLAG -848 -1088 Filtered
FLAG -912 -1056 0
FLAG -1024 -1056 0
SYMBOL voltage -1984 -1072 R0
WINDOW 123 0 0 Left 0
WINDOW 39 0 0 Left 0
WINDOW 3 -89 197 Left 2
WINDOW 0 -13 54 Left 2
SYMATTR Value PWL file=PWLinput.csv
SYMATTR InstName V2
SYMBOL voltage -1888 -1072 R0
WINDOW 123 24 44 Left 2
WINDOW 39 0 0 Left 0
WINDOW 3 -386 233 Left 2
WINDOW 0 -11 56 Left 2
SYMATTR Value SINE({sineOffset} {sineAmplitude} {sineFreq})
SYMATTR InstName V3
SYMBOL voltage -2080 -1072 R0
WINDOW 123 0 0 Left 0
WINDOW 39 0 0 Left 0
WINDOW 3 3 160 Left 2
WINDOW 0 -13 55 Left 2
SYMATTR Value {dcAmplitude}
SYMATTR InstName V1
SYMBOL voltage -2096 -784 R0
WINDOW 123 24 44 Left 2
WINDOW 39 0 0 Left 0
WINDOW 3 -46 76 Left 2
WINDOW 0 -13 57 Left 2
SYMATTR Value 9
SYMATTR InstName V4
SYMBOL res -1936 -736 R90
WINDOW 0 -9 30 VBottom 2
WINDOW 3 34 56 VTop 2
SYMATTR InstName R_Sense
SYMATTR Value 0.010
SYMBOL cap -1360 -1200 R0
SYMATTR InstName C1
SYMATTR Value 10µ
SYMBOL cap -1568 -1200 R0
SYMATTR InstName C2
SYMATTR Value 10µ
SYMBOL AutoGenerated\\LM7805 -1472 -1248 M180
SYMATTR InstName U2
SYMBOL res -528 -992 R0
SYMATTR InstName Rload
SYMATTR Value 100k
SYMBOL res -512 -1168 R90
WINDOW 0 0 56 VBottom 2
WINDOW 3 32 56 VTop 2
SYMATTR InstName R3
SYMATTR Value 220k
SYMBOL res -736 -1040 R90
WINDOW 0 2 80 VBottom 2
WINDOW 3 -26 27 VTop 2
SYMATTR InstName R1
SYMATTR Value 10k
SYMBOL voltage -384 -672 M0
WINDOW 123 0 0 Left 0
WINDOW 39 0 0 Left 0
WINDOW 3 5 98 Left 2
SYMATTR Value SINE(1.77 0.14 50)
SYMATTR InstName V5
SYMBOL Opamps\\opamp2 -640 -1072 R0
SYMATTR InstName U1
SYMATTR Value TLC2272
SYMBOL res -1280 -1024 R0
SYMATTR InstName R6
SYMATTR Value 4765
SYMBOL res -1280 -1136 R0
SYMATTR InstName R5
SYMATTR Value 10k
SYMBOL res -752 -992 R0
SYMATTR InstName R4
SYMATTR Value 220k
SYMBOL res -736 -1008 R90
WINDOW 0 57 84 VBottom 2
WINDOW 3 29 38 VTop 2
SYMATTR InstName R2
SYMATTR Value 10k
SYMBOL res -1024 -1184 R90
WINDOW 0 0 56 VBottom 2
WINDOW 3 32 56 VTop 2
SYMATTR InstName R8
SYMATTR Value 50k
SYMBOL cap -1040 -1136 R0
SYMATTR InstName C3
SYMATTR Value 159n
SYMBOL Opamps\\opamp2 -912 -1248 R0
SYMATTR InstName U3
SYMATTR Value TL081
TEXT -2080 -1120 Left 2 !.tran 0 {transtop} 0 {timestep}
TEXT -1952 -1168 Left 2 !.include E344cfg.txt
TEXT -2288 -1384 Left 2 ;Don't change these -- used for auto-assessments.\nYou may modify input files while developing.\nFor submission: \n  * Use only 9V supply \n  * Connect "Stimulus" to your input\n  * Connect "Vout" to your output.\n  * Only one label name per net.
TEXT -2280 -1168 Left 2 ;Config file:
TEXT -2280 -1120 Left 2 ;Analysis setup:
TEXT -2272 -744 Left 2 ;Battery
TEXT -2280 -1032 Left 2 ;Sensor-\nemulating \nstimulus
TEXT -2272 -608 Left 2 ;Assessed nets:\nConnect to your outputs
TEXT -1632 -1400 Left 2 ;D. H. von Eschwege, 21785155\nV(0degV) = 440mV\ndeltaV/degV = 35mV
TEXT -536 -1400 Left 2 !.incl TLC2272.lib
TEXT -576 -1368 Left 2 !.incl LM78XX_RS.lib
TEXT -504 -1336 Left 2 !.incl TL081.lib
LINE Normal -1792 -1008 -1856 -1008 2
LINE Normal -1792 -864 -1792 -1008 2
LINE Normal -1808 -880 -1792 -864 2
LINE Normal -1792 -864 -1808 -880 2
LINE Normal -1776 -880 -1792 -864 2
LINE Normal -2128 -1008 -2112 -1008 2
LINE Normal -2128 -928 -2128 -1008 2
LINE Normal -2128 -912 -2128 -928 2
LINE Normal -2096 -912 -2128 -912 2
LINE Normal -2112 -928 -2096 -912 2
LINE Normal -2096 -912 -2112 -928 2
LINE Normal -2112 -896 -2096 -912 2
LINE Normal -1968 -944 -1968 -992 2
LINE Normal -1856 -944 -1968 -944 2
LINE Normal -1856 -896 -1856 -944 2
LINE Normal -1872 -912 -1856 -896 2
LINE Normal -1856 -896 -1872 -912 2
LINE Normal -1840 -912 -1856 -896 2
LINE Normal -2304 -544 -2304 -1408 1
LINE Normal -1680 -1408 -1680 -544 1
LINE Normal -1680 -544 -2304 -544 1
LINE Normal -1680 -1408 -2304 -1408 1
