Version 4
SHEET 1 1824 680
WIRE -1360 -1072 -1408 -1072
WIRE -1552 -1056 -1648 -1056
WIRE -1472 -1056 -1552 -1056
WIRE -1360 -1040 -1408 -1040
WIRE -1216 -1040 -1360 -1040
WIRE -1200 -1040 -1216 -1040
WIRE -1648 -1024 -1648 -1056
WIRE -1200 -1024 -1200 -1040
WIRE -1552 -1008 -1552 -1056
WIRE -1360 -1008 -1360 -1040
WIRE -1648 -912 -1648 -944
WIRE -1552 -912 -1552 -944
WIRE -1360 -912 -1360 -944
WIRE -1200 -912 -1200 -944
FLAG -1200 -912 0
FLAG -1360 -1072 0
FLAG -1552 -912 0
FLAG -1360 -912 0
FLAG -1648 -912 0
FLAG -1648 -1056 9V
FLAG -1216 -1040 5V
SYMBOL res -1216 -1040 R0
SYMATTR InstName Rout
SYMATTR Value 50
SYMBOL cap -1376 -1008 R0
SYMATTR InstName C1
SYMATTR Value 10µ
SYMBOL cap -1568 -1008 R0
SYMATTR InstName C2
SYMATTR Value 10µ
SYMBOL AutoGenerated\\LM7805 -1440 -1056 R0
SYMATTR InstName U1
SYMBOL voltage -1648 -1040 R0
WINDOW 123 0 0 Left 0
WINDOW 39 0 0 Left 0
SYMATTR InstName Vin
SYMATTR Value 9
TEXT -1336 -1136 Left 2 !.incl LM78XX_RS.lib
TEXT -1656 -1136 Left 2 !.tran 10m
