Version 4
SHEET 1 1824 680
WIRE -1520 -1232 -1696 -1232
WIRE -1408 -1232 -1456 -1232
WIRE -1072 -1232 -1232 -1232
WIRE -944 -1232 -1008 -1232
WIRE -1584 -1104 -1584 -1120
WIRE -1504 -1104 -1584 -1104
WIRE -1408 -1104 -1408 -1232
WIRE -1408 -1104 -1424 -1104
WIRE -1120 -1104 -1120 -1120
WIRE -1040 -1104 -1120 -1104
WIRE -944 -1104 -944 -1232
WIRE -944 -1104 -960 -1104
WIRE -1584 -1024 -1584 -1104
WIRE -1552 -1024 -1584 -1024
WIRE -1120 -1024 -1120 -1104
WIRE -1088 -1024 -1120 -1024
WIRE -1408 -1008 -1408 -1104
WIRE -1408 -1008 -1488 -1008
WIRE -1376 -1008 -1376 -1024
WIRE -1376 -1008 -1408 -1008
WIRE -944 -1008 -944 -1104
WIRE -944 -1008 -1024 -1008
WIRE -912 -1008 -912 -1024
WIRE -912 -1008 -944 -1008
WIRE -1792 -992 -1792 -1008
WIRE -1776 -992 -1792 -992
WIRE -1696 -992 -1696 -1232
WIRE -1600 -992 -1616 -992
WIRE -1552 -992 -1600 -992
WIRE -1328 -992 -1328 -1008
WIRE -1312 -992 -1328 -992
WIRE -1232 -992 -1232 -1232
WIRE -1136 -992 -1152 -992
WIRE -1088 -992 -1136 -992
WIRE -1600 -976 -1600 -992
WIRE -1136 -976 -1136 -992
WIRE -1520 -960 -1520 -976
WIRE -1056 -960 -1056 -976
WIRE -1088 -848 -1168 -848
WIRE -992 -848 -1008 -848
WIRE -1376 -752 -1376 -768
WIRE -1296 -752 -1376 -752
WIRE -1168 -752 -1168 -848
WIRE -1168 -752 -1216 -752
WIRE -1136 -752 -1168 -752
WIRE -1376 -736 -1376 -752
WIRE -992 -736 -992 -848
WIRE -992 -736 -1072 -736
WIRE -976 -736 -992 -736
WIRE -1296 -720 -1328 -720
WIRE -1200 -720 -1216 -720
WIRE -1136 -720 -1200 -720
WIRE -1328 -704 -1328 -720
WIRE -1200 -704 -1200 -720
WIRE -992 -704 -992 -736
WIRE -1744 -688 -1760 -688
WIRE -1696 -688 -1744 -688
WIRE -1584 -688 -1632 -688
WIRE -1104 -688 -1104 -704
WIRE -1744 -672 -1744 -688
WIRE -1584 -672 -1584 -688
WIRE -1200 -608 -1200 -624
WIRE -992 -608 -992 -624
WIRE -1744 -592 -1744 -608
WIRE -1664 -592 -1664 -624
WIRE -1584 -592 -1584 -608
FLAG -976 -736 Vout
IOPIN -976 -736 Out
FLAG -1760 -688 9V
IOPIN -1760 -688 In
FLAG -1664 -592 0
FLAG -1744 -592 0
FLAG -1584 -592 0
FLAG -992 -608 0
FLAG -1104 -688 0
FLAG -1376 -656 0
FLAG -1200 -608 0
FLAG -1792 -1008 Stimulus
FLAG -1520 -960 0
FLAG -1600 -912 0
FLAG -1584 -1200 0
FLAG -1056 -960 0
FLAG -1136 -912 0
FLAG -1120 -1200 0
FLAG -1104 -768 5V
IOPIN -1104 -768 In
FLAG -1584 -688 5V
IOPIN -1584 -688 In
FLAG -1376 -848 5V
IOPIN -1376 -848 In
FLAG -1520 -1040 5V
IOPIN -1520 -1040 In
FLAG -1056 -1040 5V
IOPIN -1056 -1040 In
FLAG -1376 -1024 Filtered_1
IOPIN -1376 -1024 In
FLAG -1328 -1008 Filtered_1
IOPIN -1328 -1008 In
FLAG -912 -1024 Filtered_2
IOPIN -912 -1024 In
FLAG -1328 -704 Filtered_2
IOPIN -1328 -704 In
SYMBOL cap -1568 -672 M0
SYMATTR InstName C1
SYMATTR Value 10µ
SYMBOL cap -1760 -672 R0
SYMATTR InstName C2
SYMATTR Value 10µ
SYMBOL res -1008 -720 R0
SYMATTR InstName Rload
SYMATTR Value 100k
SYMBOL res -992 -864 R90
WINDOW 0 0 56 VBottom 2
WINDOW 3 32 56 VTop 2
SYMATTR InstName R3
SYMATTR Value 230k
SYMBOL res -1200 -768 R90
WINDOW 0 2 80 VBottom 2
WINDOW 3 -26 27 VTop 2
SYMATTR InstName R1
SYMATTR Value 10k
SYMBOL Opamps\\opamp2 -1104 -800 R0
WINDOW 3 6 97 Left 2
SYMATTR Value TLC2272
SYMATTR InstName U1
SYMBOL res -1360 -752 M0
SYMATTR InstName R6
SYMATTR Value 5105
SYMBOL res -1360 -864 M0
SYMATTR InstName R5
SYMATTR Value 10k
SYMBOL res -1216 -720 R0
SYMATTR InstName R4
SYMATTR Value 230k
SYMBOL res -1200 -736 R90
WINDOW 0 57 84 VBottom 2
WINDOW 3 29 38 VTop 2
SYMATTR InstName R2
SYMATTR Value 10k
SYMBOL res -1680 -1008 R90
WINDOW 0 0 56 VBottom 2
WINDOW 3 32 56 VTop 2
SYMATTR InstName R7
SYMATTR Value 100k
SYMBOL cap -1616 -976 R0
WINDOW 3 24 49 Left 2
SYMATTR InstName C4
SYMATTR Value 100n
SYMBOL Opamps\\opamp2 -1520 -1072 R0
SYMATTR InstName U4
SYMATTR Value TL081
SYMBOL res -1600 -1008 R90
WINDOW 0 0 56 VBottom 2
WINDOW 3 32 56 VTop 2
SYMATTR InstName R9
SYMATTR Value 100k
SYMBOL res -1408 -1120 R90
WINDOW 0 0 56 VBottom 2
WINDOW 3 32 56 VTop 2
SYMATTR InstName Ra
SYMATTR Value 5k
SYMBOL res -1568 -1216 M0
SYMATTR InstName Rb
SYMATTR Value 500k
SYMBOL cap -1456 -1248 R90
WINDOW 0 0 32 VBottom 2
WINDOW 3 32 32 VTop 2
SYMATTR InstName C5
SYMATTR Value 100n
SYMBOL res -1216 -1008 R90
WINDOW 0 0 56 VBottom 2
WINDOW 3 32 56 VTop 2
SYMATTR InstName R8
SYMATTR Value 100k
SYMBOL cap -1152 -976 R0
WINDOW 3 26 49 Left 2
SYMATTR InstName C3
SYMATTR Value 100n
SYMBOL Opamps\\opamp2 -1056 -1072 R0
SYMATTR InstName U3
SYMATTR Value TL081
SYMBOL res -1136 -1008 R90
WINDOW 0 0 56 VBottom 2
WINDOW 3 32 56 VTop 2
SYMATTR InstName R10
SYMATTR Value 100k
SYMBOL res -944 -1120 R90
WINDOW 0 0 56 VBottom 2
WINDOW 3 32 56 VTop 2
SYMATTR InstName Ra1
SYMATTR Value 5k
SYMBOL res -1104 -1216 M0
SYMATTR InstName Rb1
SYMATTR Value 500k
SYMBOL cap -1008 -1248 R90
WINDOW 0 0 32 VBottom 2
WINDOW 3 32 32 VTop 2
SYMATTR InstName C6
SYMATTR Value 100n
SYMBOL LM7805 -1664 -672 R0
SYMATTR InstName U2
